26
N -0.967616 -1.454924 0.209322
C -2.251676 -1.147404 0.573268
C -2.610766 0.375031 0.597709
F -3.682562 0.561265 -0.246557
F -3.011064 0.683205 1.878741
C -1.486471 1.388871 0.186627
C -0.159433 0.835686 -0.169395
C 0.894959 1.701032 -0.538787
C 2.151203 1.196801 -0.895842
C 2.393602 -0.202438 -0.864655
C 1.339808 -1.068187 -0.498023
C 0.073522 -0.567284 -0.151518
S 3.917291 -0.975052 -1.341799
C 5.213556 -0.066617 -0.458982
O -3.042439 -2.034217 0.861246
O -1.710185 2.595746 0.175876
H 2.926497 1.898046 -1.202081
H 0.700332 2.7739 -0.554949
H -0.79696 -2.451304 0.209456
H 1.509248 -2.145598 -0.492622
H 5.418849 0.871744 -0.98255
H 4.887633 0.142668 0.564031
H 6.120241 -0.678071 -0.43261
O 2.934545 0.047884 1.945933
H 2.555816 -0.618787 2.519655
H 2.33149 0.791945 1.913815
