26
N -0.838718 -1.416213 0.04584
C -2.115455 -1.170041 0.483138
C -2.443804 0.330924 0.768096
F -3.751047 0.57998 0.401004
F -2.35287 0.521428 2.127961
C -1.510467 1.386123 0.076097
C -0.164187 0.919025 -0.332222
C 0.784693 1.830399 -0.844026
C 2.063547 1.401502 -1.22097
C 2.410244 0.028661 -1.128548
C 1.438853 -0.894588 -0.684475
C 0.154863 -0.468269 -0.304047
S 3.994267 -0.624847 -1.566502
C 5.003173 -0.314606 -0.095446
O -2.888179 -2.092592 0.701662
O -1.861872 2.559427 -0.043757
H 2.779097 2.142199 -1.577073
H 0.501335 2.880122 -0.92413
H -0.65684 -2.403451 -0.070401
H 1.693189 -1.95326 -0.619249
H 5.058666 0.762965 0.087174
H 4.549516 -0.812362 0.767237
H 6.008544 -0.71231 -0.262896
O -2.519229 0.511324 -2.399897
H -2.881998 1.368058 -2.164441
H -1.93209 0.630451 -3.14777
