26
N -0.826003 -1.328296 -0.077994
C -2.109265 -1.054457 0.319765
C -2.3948 0.443098 0.665363
F -3.696012 0.750679 0.311331
F -2.311466 0.56364 2.033845
C -1.415946 1.494962 0.035407
C -0.074868 0.999097 -0.356159
C 0.916674 1.898406 -0.804721
C 2.191551 1.443367 -1.164341
C 2.49597 0.058493 -1.109243
C 1.487168 -0.849333 -0.720696
C 0.205127 -0.397725 -0.363539
S 4.070537 -0.628406 -1.529263
C 5.049967 -0.392699 -0.02521
O -2.936719 -1.948737 0.434598
O -1.72313 2.683315 -0.029915
H 2.937061 2.173693 -1.47742
H 0.667174 2.958566 -0.855484
H -0.67306 -2.313222 -0.244219
H 1.708654 -1.916778 -0.685939
H 5.179969 0.678447 0.157701
H 4.531484 -0.852229 0.822245
H 6.0275 -0.865474 -0.159307
O -2.616301 0.255069 -2.348575
H -3.448484 0.069547 -1.907974
H -2.719554 1.067029 -2.847897
