26
N -0.97821 -1.36757 -0.052753
C -2.253149 -1.084087 0.365243
C -2.528427 0.417814 0.704567
F -3.820675 0.728645 0.322983
F -2.4611 0.548365 2.072967
C -1.543125 1.460473 0.071513
C -0.216218 0.952305 -0.34926
C 0.77095 1.843823 -0.822077
C 2.035231 1.379542 -1.205716
C 2.334178 -0.006316 -1.145242
C 1.327529 -0.906628 -0.734348
C 0.054012 -0.445766 -0.358531
S 3.900499 -0.702318 -1.579817
C 4.945583 -0.309544 -0.154197
O -3.079934 -1.978373 0.493998
O -1.83534 2.653524 0.018749
H 2.777032 2.103867 -1.540478
H 0.527653 2.905473 -0.869593
H -0.831779 -2.355109 -0.209669
H 1.544983 -1.974733 -0.693625
H 5.139017 0.767316 -0.133953
H 4.435363 -0.610479 0.766391
H 5.891505 -0.851565 -0.244835
O -2.959719 0.224662 -2.233684
H -3.606631 -0.483657 -2.257861
H -3.419811 1.044277 -2.425465
