26
N -0.832922 -1.431682 0.085008
C -2.115804 -1.155808 0.484332
C -2.428905 0.359146 0.705453
F -3.755589 0.594093 0.394406
F -2.273655 0.619554 2.048174
C -1.519982 1.360192 -0.090197
C -0.164062 0.875733 -0.445273
C 0.784034 1.752053 -1.016235
C 2.071008 1.305029 -1.342565
C 2.428111 -0.052407 -1.134079
C 1.458092 -0.946795 -0.632344
C 0.165014 -0.503111 -0.307101
S 4.026348 -0.721474 -1.486793
C 4.986063 -0.316271 -0.006148
O -2.912064 -2.061051 0.69684
O -1.877271 2.520212 -0.291633
H 2.786234 2.021735 -1.745219
H 0.493285 2.789211 -1.184384
H -0.653501 -2.423364 0.011835
H 1.721153 -1.993693 -0.475802
H 5.054268 0.771397 0.095045
H 4.491108 -0.738474 0.874188
H 5.989304 -0.741438 -0.103323
O -2.58698 0.118701 -2.286345
H -3.318978 -0.496857 -2.363935
H -2.86489 0.949311 -2.678595
